17
MOL.0.pdb	Energy:       0.0000000
  N        3.32900        1.57800       -0.28200
  H        4.01500        0.96500       -0.70000
  H        2.61800        1.78500       -0.96900
  H        3.06700        1.20500        0.61900
  C        3.97000        2.84600       -0.00000
  H        3.69000        3.57300       -0.76200
  H        3.65100        3.20500        0.97900
  C        5.48400        2.68700        0.00000
  O        5.99300        1.56800        0.00000
  N        6.20300        3.81100        0.00000
  H        5.74500        4.70300       -0.12200
  C        7.64200        3.80000        0.17100
  H        7.88300        3.55400        1.20500
  H        8.08100        3.05500       -0.49200
  C        8.22700        5.16600       -0.16200
  O        7.54100        6.01700       -0.72400
  O        9.39100        5.43200        0.12600
