17
MOL.4.pdb	Energy:       0.0000000
  N        3.32900        1.57800        0.28200
  H        4.01500        0.96500        0.70000
  H        3.06700        1.20500       -0.61900
  H        2.61800        1.78500        0.96900
  C        3.97000        2.84600        0.00000
  H        3.65100        3.20500       -0.97900
  H        3.69000        3.57300        0.76200
  C        5.48400        2.68700        0.00000
  O        5.99300        1.56800        0.00000
  N        6.20300        3.81100       -0.00000
  H        6.92900        3.94600        0.69000
  C        5.97800        4.86500       -0.96900
  H        5.92600        4.43300       -1.96900
  H        5.04100        5.37200       -0.74200
  C        7.11300        5.87800       -0.92500
  O        8.14700        5.62900       -0.30900
  O        7.00900        6.95500       -1.50600
