 192
  i =    91000  time =    45500.000  E =     -1102.6909651775
O           3.87200451         -4.70772409          5.51032019
H           4.39089155         -5.36467600          6.03586102
H           3.28556848         -4.26432991          6.15682554
O          -3.49037814          1.77580965          4.29954052
H          -3.37079144          0.80161017          4.35748625
H          -3.52955866          2.05874085          5.24729824
O           4.55320263          2.91870642          5.34982634
H           3.61520767          3.26033354          5.52512980
H           4.45901918          2.60150838          4.43012667
O          -2.52568817         -0.14156935         -3.46994543
H          -2.06632090          0.41786537         -2.85543513
H          -1.86208212         -0.81896126         -3.91945457
O          -3.74953771          4.69276762          5.59264374
H          -4.68076897          4.87683821          5.83332634
H          -3.94165921          4.62883472          4.59733677
O           5.65853024         -0.07854211          2.31897068
H           6.36226654         -0.56412923          2.85864019
H           6.19304895          0.72350234          2.01082659
O           4.01238108         -5.58748102         -0.36483806
H           3.20243025         -5.50193167          0.34991235
H           3.84750724         -4.86502504         -0.95887291
O          -2.68495989         -3.12122059         -1.23480248
H          -3.06384277         -2.37504745         -1.77505028
H          -2.15824151         -2.58165669         -0.65041298
O           5.48023367         -3.21361542          3.06031513
H           4.64530802         -3.23506665          3.53350520
H           5.14816904         -2.99040270          2.09133196
O           1.94897997          3.84619761          5.79112434
H           1.47886336          2.97474980          5.65815544
H           2.07761478          3.91378379          6.78994226
O           4.04602623         -3.85466218         -3.03766966
H           3.16063094         -3.73938894         -3.51467085
H           4.36864138         -2.94919133         -2.82874012
O           1.95596385         -1.84313405          1.05340958
H           1.50849295         -2.40904450          1.72206092
H           1.53974652         -2.07098246          0.09559846
O           0.79715312         -5.69681072         -4.96826887
H           1.57714391         -6.30273342         -4.84647989
H           0.50936103         -5.78793287         -5.89066696
O           4.86570072          3.73541880         -3.22641230
H           4.53011465          2.82010698         -3.25209260
H           5.36133623          3.93539476         -2.39088702
O           2.97165036         -1.63700151          5.15331984
H           3.77062273         -1.96377206          5.60928249
H           3.24407268         -0.77698606          4.65200615
O          -0.10084791          1.87807965          5.75541115
H           0.15263179          0.99280357          6.13315868
H          -0.06132697          1.69976640          4.75743151
O           1.33228993         -3.09821916          3.62485266
H           1.95458961         -2.63045287          4.24420023
H           1.00433683         -3.85784578          4.16504622
O          -2.36777496          2.81185484          2.23122072
H          -1.59495342          2.25609946          2.29140544
H          -2.68465686          2.67538142          3.14686084
O           0.84285200         -0.63669217         -5.57829237
H           1.61886680         -0.84832102         -6.25363493
H           1.30834353         -0.49415693         -4.68511009
O          -1.18220961         -0.74434566          0.23004460
H          -1.21212530          0.18410969         -0.07744244
H          -1.04589355         -0.75317603          1.20088649
O          -3.84039044          3.38972211         -3.10429120
H          -4.25492430          4.26200247         -3.12842059
H          -2.90693021          3.57925630         -3.17028356
O           4.94661999          4.49626398          2.17523789
H           4.60950947          3.86532092          1.52497745
H           4.20617628          4.99430847          2.60075402
O           4.26473475          1.05352402         -3.18719101
H           4.65711880          0.95335644         -4.09733963
H           4.37777138          0.21629256         -2.65438080
O          -5.17868853          6.06715536         -2.64795113
H          -5.33477402          6.57295036         -1.81661570
H          -5.95787907          6.34172440         -3.16142416
O           4.83210373         -2.12928867          0.71899462
H           5.19455671         -1.35359383          1.24770999
H           3.85785794         -1.99898314          0.75130141
O           2.12684584          0.95729291          1.69378281
H           2.88599086          1.40958750          1.34552014
H           2.18052340          0.04532588          1.28206527
O          -5.74992752         -5.03489208         -0.33438134
H          -6.64005613         -5.38340425         -0.14147398
H          -5.89566088         -4.13854742         -0.54596311
O          -4.89595175          4.66028070          2.67185473
H          -5.86420870          4.80494022          2.52610970
H          -4.75199175          3.69460702          2.35774517
O           5.55128765          0.81352127         -5.62434959
H           6.43255711          1.10977340         -5.45351219
H           5.21152639          1.55755949         -6.25560856
O           0.71613091         -1.91534603         -1.27332127
H           0.37882337         -2.72783399         -1.74601436
H          -0.08253545         -1.57040763         -0.81442249
O           3.86701608          2.70376348          0.09873285
H           4.69982862          2.70092773         -0.36812180
H           3.26865959          3.29646373         -0.45274511
O          -1.10642016         -1.35463393          2.94688606
H          -0.36836952         -2.03127623          3.07509685
H          -1.88729310         -1.94805789          3.14894104
O           2.11312628         -5.64556742          1.37587500
H           1.24047136         -6.05576897          1.22911179
H           2.43546295         -6.00755978          2.20172691
O          -0.64576966         -3.84590125         -2.85444832
H          -1.58704329         -3.96412945         -2.47221351
H          -0.23870972         -4.63439894         -3.12772393
O          -5.28726387          2.06130338          1.45912838
H          -4.40052700          1.91640770          1.81651878
H          -5.18940449          1.84318531          0.43445659
O           1.97512746         -3.40508485         -5.27107143
H           1.49459410         -4.20496702         -4.88009071
H           1.46113479         -2.60373712         -5.51302958
O          -1.20657647          3.88399315         -3.39332557
H          -0.93101823          4.13126421         -4.30707407
H          -0.92638177          4.66591692         -2.92692637
O          -5.42926216         -5.02315140          4.32389545
H          -6.09600639         -4.42229605          3.91311836
H          -4.96759224         -5.20683479          3.45547795
O           2.93071389          5.81169844          3.65981317
H           3.39397097          6.47656298          4.24539042
H           2.53465152          5.24776554          4.36762905
O          -4.06506538          1.51465547         -5.15866613
H          -3.52839875          0.90799665         -4.60533905
H          -3.94967604          2.31020427         -4.63346481
O           3.42849517          0.59184766          3.99920416
H           2.78902459          0.71913636          3.26193357
H           4.28480387          0.22244790          3.62718511
O          -4.63053465         -1.01356840          4.00235510
H          -5.32714796         -1.23994493          4.65884256
H          -4.20228720         -1.87610471          3.81503034
O          -0.21343435          1.30819499          3.13185811
H           0.56788987          1.47366428          2.61562967
H          -0.36397535          0.32006687          3.15638351
O          -1.97453749          5.08543205          0.56812912
H          -2.35290408          4.26348877          1.06670880
H          -2.51924825          5.78987503          0.97921449
O          -1.32527792         -1.86216211         -4.90209484
H          -0.67895204         -2.38663363         -4.37436104
H          -0.59306562         -1.32225084         -5.42096472
O          -5.14730072          1.81126904         -1.31030536
H          -4.87872314          2.53699899         -1.90129006
H          -5.48729515          1.12091410         -1.88097382
O           4.97978878         -1.20101237         -1.97715485
H           5.94170427         -1.13011646         -2.19388247
H           4.96709156         -1.46030009         -1.03854299
O          -0.46911469          1.39864981         -1.74197066
H          -0.73149854          2.17391944         -2.21546197
H           0.25221130          0.98996079         -2.23958182
O           0.01062540          5.91102457         -1.14755261
H          -0.05840750          6.87269783         -1.10586441
H          -0.83253759          5.55130434         -0.64962864
O           5.67727995         -1.68981004          6.00778008
H           6.09300280         -2.35001945          6.50163412
H           5.77306747         -0.98401523          6.70251656
O          -2.57320023         -5.77540636         -4.24050283
H          -2.43685913         -6.65370846         -4.58618402
H          -3.42022157         -5.78402042         -3.75244856
O          -4.91982222         -1.44574666         -3.22065353
H          -5.00927973         -2.26335382         -3.75018287
H          -3.97799444         -0.94665849         -3.33179665
O           2.29544330          4.42153025         -1.24015999
H           1.34466648          4.42440367         -1.00032115
H           2.63232827          5.31081009         -0.95319247
O          -5.65525866         -3.90904689         -5.29997540
H          -4.91239452         -4.12759256         -5.88842916
H          -6.30974293         -4.41894150         -5.75026369
O          -0.34875092          4.95170927          2.93675542
H          -0.65524912          4.19349194          3.55079389
H          -0.87488210          4.84130144          2.09673285
O          -2.76366806         -4.01270819         -6.20170736
H          -2.74103403         -4.75858927         -5.50927448
H          -2.29938602         -3.23234653         -5.84583950
O          -2.82178783         -3.47578144          3.50162172
H          -2.97881103         -3.94521022          4.35673952
H          -3.14529657         -3.98721504          2.77841568
O           2.48598003          4.69068766         -3.96388412
H           3.44171000          4.41967916         -3.68846226
H           1.94806933          4.57660246         -3.10680079
O           1.64235878          0.09760884         -3.12173605
H           1.66888762         -0.67435086         -2.55576992
H           2.49880028          0.54888666         -3.12493968
O          -1.17917812          4.24108267          6.01451826
H          -0.93950248          3.28875017          5.92669201
H          -2.12353730          4.40828228          5.79731941
O          -0.43742135         -4.01036549          0.55858415
H           0.32760116         -4.01653957          1.18379903
H          -1.11599755         -4.35786486          1.18289661
O           5.85191679          5.65386248          5.80058813
H           5.36847162          4.88722897          5.46842003
H           6.29745340          6.21684837          5.04568815
O          -0.39534292         -5.25400162          4.65619802
H          -0.54572016         -6.08571815          4.09079170
H          -1.16348577         -4.88997412          5.10137415
O          -3.83442521         -5.49651861          1.74107659
H          -4.23877621         -6.31288719          1.99829412
H          -4.41274118         -5.38003397          0.96087807

