      56
 i =      200, E =      -193.6792964278
  C         0.1172253757        0.1500133152        0.1805159007
  C         1.5017659176        0.0973832194        0.5594529486
  C         2.0783429970        1.1220915733        1.2877849276
  C         1.2858997456        2.2380108626        1.6848900558
  C        -0.0409064590        2.3281830774        1.2989644385
  C        -0.6600541214        1.3160660804        0.4830856071
  C        -2.0443405898        1.3818538989        0.0304372731
  C        -2.7072237340        0.1862438515       -0.3212681229
  C        -1.8985360637       -0.9634856780       -0.6438843083
  C        -0.5357444495       -0.9638205451       -0.4537317742
  C        -4.1816177966        0.1285307355       -0.2620099338
  C        -2.8171278469        2.6395695985       -0.0285072428
  C        -4.1847546335        2.5870234059        0.3173568320
  C        -4.9019376350        1.2978282736        0.2512597590
  C        -6.2521318351        1.1649271546        0.5553088156
  C        -7.0024866280       -0.0356984893        0.2929366434
  C        -6.3193527258       -1.1440398142       -0.3169009876
  C        -4.9082945910       -1.0151362258       -0.5735344556
  C        -2.2491098550        3.9052146146       -0.4773383505
  C        -1.0620763959        4.0027001145       -1.2866060205
  C        -0.5462524309        5.2278902150       -1.6746891380
  C        -1.1903725660        6.4378168029       -1.2849332451
  C        -2.3666948508        6.3840281503       -0.5594168680
  C        -2.9422645688        5.1242195142       -0.1791219408
  C        -4.2324355367        5.0434425549        0.4519791089
  C        -4.8469581124        3.8269050333        0.6401570748
  C        -8.4222236435       -2.4419448697       -0.3292902153
  C        -7.0501780840       -2.3241825288       -0.6180581946
  C        -8.3866723431       -0.1570823165        0.5875924079
  C        -9.1082747478       -1.3270456289        0.2892220435
  C       -10.5236060988       -1.4565645038        0.5767627580
  C       -11.2188031590       -2.6128018553        0.2751747416
  C       -10.5238725876       -3.7519048773       -0.3478977453
  C        -9.1719911952       -3.6465493371       -0.6308492695
  O       -11.1389493713       -4.9197823368       -0.6641303529
  O       -12.5462792504       -2.7800189180        0.5219118779
  H         2.0982887547       -0.7719176436        0.2778052809
  H         3.1290070256        1.0814982597        1.5761264232
  H         1.7351292996        3.0153416092        2.3041950445
  H        -0.6290099245        3.1759895494        1.6534778664
  H        -2.3587584559       -1.8580358668       -1.0650782427
  H         0.0559120019       -1.8304425358       -0.7538119070
  H        -6.8108631456        1.9916403498        0.9977657471
  H        -4.4211806118       -1.8847520991       -1.0184436976
  H        -0.5645313855        3.0962503866       -1.6346112248
  H         0.3532034698        5.2788557659       -2.2895812092
  H        -0.7551333171        7.3942296665       -1.5758449706
  H        -2.8762247163        7.3078156524       -0.2804436297
  H        -4.7396400045        5.9623568561        0.7509785168
  H        -5.8536380491        3.8193213774        1.0595977939
  H        -6.5282575918       -3.1627341319       -1.0842706254
  H        -8.9011764467        0.6851471271        1.0554620136
  H       -11.0265195260       -0.6056327504        1.0405827803
  H        -8.6379309751       -4.4797377868       -1.0918969877
  H       -12.0651135977       -4.9410392813       -0.4692860633
  H       -12.9507829336       -2.0178386261        0.9136520428
