 4
 SCF Done: E(RB+HF-LYP) = -1854.95650847 A.U. after 7 cycles
    Zn       -0.131039    0.162859   -0.000517
    O        -1.327159    1.606071   -0.040658
    H        -2.006335    1.765157   -0.757186
    H        -1.372897    2.316203    0.635460
 4
 SCF Done: E(RB+HF-LYP) = -1854.95712406 A.U. after 7 cycles
    Zn       -0.123081    0.160444    0.007266
    O        -1.317218    1.601758   -0.032265
    H        -2.032811    1.775423   -0.780774
    H        -1.364320    2.312666    0.642874
 4
 SCF Done: E(RB+HF-LYP) = -1854.95411054 A.U. after 7 cycles
    Zn       -0.114652    0.158228    0.015654
    O        -1.307767    1.596856   -0.024212
    H        -2.059748    1.786677   -0.804271
    H        -1.355264    2.308528    0.649929
 4
 SCF Done: E(RB+HF-LYP) = -1854.94859256 A.U. after 7 cycles
    Zn       -0.105942    0.156084    0.024260
    O        -1.298693    1.591542   -0.016162
    H        -2.086785    1.798441   -0.827705
    H        -1.346010    2.304224    0.656706
 4
 SCF Done: E(RB+HF-LYP) = -1854.94139453 A.U. after 8 cycles
    Zn       -0.097004    0.153997    0.032976
    O        -1.289962    1.585798   -0.007998
    H        -2.113810    1.810622   -0.851045
    H        -1.336654    2.299872    0.663168
