17
MOL.1.pdb	Energy:       0.0000000
  N        3.42400        2.48100        1.29200
  H        3.12300        3.32600        1.75600
  H        4.19800        2.08600        1.80600
  H        2.61200        1.91600        1.08800
  C        3.97000        2.84600        0.00000
  H        3.54600        2.20100       -0.76900
  H        3.72300        3.88500       -0.21900
  C        5.48400        2.68700        0.00000
  O        5.99300        1.56800        0.00000
  N        6.20300        3.81100       -0.00000
  H        5.98200        4.55200        0.65000
  C        7.30900        4.01300       -0.91400
  H        7.29300        3.23900       -1.68100
  H        7.21800        4.99300       -1.38400
  C        8.63400        3.94300       -0.16800
  O        9.05900        2.86800        0.24900
  O        9.29500        4.96100        0.02600
