      17
 i =     177, E =       -0.3384197910
  N         6.1719324284        2.6524876575        1.2874578684
  H         6.1578996449        3.6420213622        1.4782576361
  H         7.1471114910        2.4345327758        1.1007604830
  H         5.7857230628        2.1068862243        2.0335301240
  C         5.4477245732        2.4642753569        0.0399761084
  H         6.0685238518        1.8895331126       -0.6488519395
  H         4.5372490018        1.9042639339        0.2487481772
  C         5.0817683313        3.8070371399       -0.5973390138
  O         3.8965900914        3.9471821228       -0.8859572507
  N         5.9165703674        4.8404016248       -0.8286282138
  H         5.5776433080        5.5542726309       -1.4519175305
  C         7.2745256511        5.1006333267       -0.3928634418
  H         7.7302570710        5.8244460954       -1.0691260804
  H         7.2320257975        5.5495249587        0.6013840882
  C         8.0912401045        3.8308285384       -0.3829751448
  O         8.5822522091        3.5274304286        0.7215364091
  O         7.9285300680        3.0219422052       -1.3125188227
