     572
 i =    40000, time =    20000.000, E =        -0.3815189170
  C        11.5962313699        0.9007515032       16.7297589899
  H        11.3811787822        1.9685465336       16.7123020137
  H        10.8238407506        0.4100599345       16.2148693021
  H        11.6263697758        0.5323557793       17.7402846046
  C        12.9341440442        0.6161037635       16.0062496954
  H        13.0086885118        1.2179141852       15.1254211633
  C        13.2557392926       -0.8053449675       15.6139863452
  H        14.0434159803       -0.9153409665       14.7887512764
  H        12.4246756684       -1.3616383384       15.3143328959
 OS        13.8455891233       -1.2166038950       16.8670483499
  C        14.4271826364       -0.1894906970       17.4470238131
  O        15.2764184957       -0.2790424995       18.3897257198
 OS        13.9315502226        0.9179159875       16.8928468570
  C        12.6800555188        9.1890328367       23.3373618272
  H        11.8223571740        9.2869161647       23.9854948719
  H        13.5205862737        9.6318456159       23.8374613871
  H        12.6806711869        9.6273806612       22.3251359522
  C        12.9723955928        7.7012823485       23.2903527977
  H        13.0809440377        7.3203553955       24.2926919178
  C        14.1370943745        7.3481927564       22.3958439968
  H        14.6463408890        6.4967133447       22.7438086575
  H        14.8642104900        8.1729734822       22.1790474434
 OS        13.5276561201        6.9846250734       21.0811138396
  C        12.2272817437        6.7507485929       21.2268676708
  O        11.3736694294        6.3650363680       20.3997641200
 OS        11.9565929677        6.9770603049       22.5616197404
  C        16.3543544744        4.0944461829       20.8063695187
  H        15.4149067231        4.4560184624       21.1907683217
  H        17.1188491384        4.0618278681       21.6737683308
  H        16.7563389146        4.7697938371       20.0524167966
  C        16.1903470176        2.7838416034       20.0377850096
  H        15.7365018736        1.9274209371       20.5624810993
  C        17.5097905085        2.3232609358       19.3702013121
  H        17.5264067858        1.3536807360       19.0507774498
  H        18.3965738798        2.5766041510       19.8672145677
 OS        17.5064634138        3.1015872042       18.2288261927
  C        16.2070855783        3.3727194302       17.8704378376
  O        15.8111286977        3.8248633312       16.7499794135
 OS        15.4153314050        3.0033727924       18.9175934570
  C        14.0315661944        2.5534978719       12.8849074735
  H        14.0113193105        1.9225463796       11.9721534004
  H        13.1620245322        2.2404153121       13.4530584482
  H        13.9602494195        3.6181310870       12.6262944237
  C        15.3575077482        2.4970561208       13.6609154047
  H        15.3093541253        3.1254164873       14.5486488109
  C        16.6567678433        2.6237144256       12.9134628044
  H        16.9337806839        3.6567701336       12.9852238499
  H        16.5707719236        2.2089514423       11.8818628905
 OS        17.4331825190        1.6568575386       13.5967690498
  C        16.7068299700        0.7628658503       14.2601835879
  O        17.1213882168       -0.3231659386       14.6924782728
 OS        15.4156730123        1.1071866479       14.0508084273
  C        12.0356284851        1.4283618170        9.7433498453
  H        12.0359342449        0.3721959850        9.9467006338
  H        12.1554723071        1.9941474807       10.6704089413
  H        11.1241675222        1.7725899204        9.3527816183
  C        13.1960060027        1.7314293527        8.8027626369
  H        12.9497955089        1.1207868348        7.9351377737
  C        14.5594441848        1.5543653699        9.4490618448
  H        15.3197170177        1.3609531816        8.7471392976
  H        14.5989927876        0.7634450342       10.2122426341
 OS        14.7035965060        2.8974012897        9.9908777028
  C        13.8661669559        3.8135958330        9.5370250284
  O        13.8341277654        5.0808163318        9.7153098691
 OS        13.0609711663        3.1110575477        8.6619960679
  C        17.0014881600       -0.2843591294        6.9099258296
  H        16.8809702756       -0.2969291131        8.0182704272
  H        16.0791909804       -0.3915217488        6.3420823855
  H        17.4311579316       -1.1756457409        6.4969299420
  C        17.7483356486        0.9421104593        6.4441786685
  H        17.4956271056        1.8943003392        6.9769318031
  C        17.5537115134        1.0767723925        4.9387253112
  H        17.6627914563        2.1290224341        4.6965491476
  H        16.6354224388        0.6526380067        4.5239606213
 OS        18.6147052755        0.2825413418        4.5166476517
  C        19.6345078636        0.2851314806        5.4364059471
  O        20.7708588521       -0.2275664654        5.2577183150
 OS        19.1126701378        0.7562608216        6.5939726605
  C        15.3405323279       -3.8069667388       20.4939410795
  H        14.4422857337       -3.9658338597       21.1326700092
  H        15.0518343467       -3.5451039989       19.5419024503
  H        15.9745799431       -4.7054693955       20.4648715811
  C        16.1854348237       -2.7131553809       21.1081367066
  H        15.5942895057       -1.9271909201       21.4481730013
  C        17.2672392115       -2.2215587508       20.1488676828
  H        17.6674818844       -1.2188552061       20.4259414828
  H        17.0240148255       -2.1680541255       19.0587808411
 OS        18.2847982354       -3.1413379387       20.3770394746
  C        18.2253092407       -3.5565308115       21.6459956158
  O        19.1093642524       -4.2727324684       22.2042216148
 OS        17.0001290645       -3.2788864483       22.1317654797
  C        19.0986189949       -0.5941400601       17.3772752709
  H        19.4020409540       -0.3258089759       18.3517705330
  H        18.4396117961        0.1281690043       16.9077825039
  H        18.5154074487       -1.5079187144       17.3050438138
  C        20.3606184899       -0.6251417297       16.4066315228
  H        20.7457461900        0.3231790743       16.2118380953
  C        20.2068550290       -1.5042954470       15.1110541617
  H        21.0850976763       -1.2721914558       14.5099941793
  H        19.2858983115       -1.3888325390       14.6440709376
 OS        20.3984548160       -2.8273631060       15.6271001636
  C        21.1872194419       -2.7609065524       16.6881954574
  O        21.7511280978       -3.7205085870       17.2137212678
 OS        21.3204849825       -1.4653955772       17.0371085002
  C        16.6461586215       -2.0313911803       11.7463789183
  H        16.2065224331       -2.8481738462       11.2047922111
  H        17.1914163911       -2.3842171931       12.5617147790
  H        15.8765768632       -1.3077280826       12.0846595272
  C        17.6163482439       -1.2895158877       10.8226121404
  H        17.5185528453       -1.7048396949        9.8408420651
  C        19.0762844369       -1.3840276787       11.1538659772
  H        19.5529417376       -2.2418550293       10.6310350050
  H        19.3053144489       -1.4336030843       12.1881513910
 OS        19.5141956666       -0.1079495101       10.6571789358
  C        18.5099194929        0.7314792025       10.5056971637
  O        18.5766476367        1.8947735030       10.1194112240
 OS        17.3777786411        0.0824020808       10.8591674978
  C        12.7456963060       -1.9526549109        6.4745458385
  H        13.3082125424       -1.1106995325        6.0185355637
  H        11.7607476577       -1.7991491206        6.1486720875
  H        12.8838769636       -1.7248508354        7.5269325650
  C        13.3224073900       -3.3204272656        6.1179057478
  H        12.9555907686       -3.4727064313        5.0960525016
  C        13.0354610918       -4.4410421055        7.1040714370
  H        13.0183186536       -5.4016259132        6.5518447274
  H        12.0672334255       -4.3672484329        7.6019400751
 OS        14.1597338200       -4.3953783702        7.9761913290
  C        15.1765130092       -3.6651753552        7.4427428813
  O        16.3193291688       -3.4467407858        7.9307687107
 OS        14.7050019544       -3.1275820338        6.3069266209
  C        16.1106821441       -6.8004492566       22.6666565434
  H        15.1991767030       -7.1064687054       23.1717380351
  H        16.2487481122       -5.7570569855       22.9614432892
  H        16.0351040315       -6.8035782327       21.6009773964
  C        17.3979840221       -7.6131690429       23.0461345962
  H        17.8008428412       -7.2191834907       23.9905401171
  C        18.5946240614       -7.5063358020       22.0581944136
  H        19.5993475210       -7.5878288835       22.5382386132
  H        18.6253810500       -6.6794871086       21.3417129065
 OS        18.4767759291       -8.7589183116       21.3164948913
  C        17.7115370213       -9.6716039281       21.9791653857
  O        17.5379317110      -10.8791863749       21.6041364474
 OS        17.0857359308       -9.0118374356       23.0035730090
  C        16.8256502038      -10.5449973244       18.0436489453
  H        17.5410078577      -11.1381466261       18.6293040715
  H        16.3668684520      -11.1433201816       17.3057329096
  H        17.3873373553       -9.6789443251       17.6802473436
  C        15.6388688162      -10.0877886496       18.8910378056
  H        15.2453120678      -10.9479368079       19.4242679248
  C        14.5672650558       -9.4334011809       18.0937940841
  H        13.6929097082       -9.3343841585       18.7217864432
  H        14.3405848378       -9.8881634784       17.1482075130
 OS        15.1307232095       -8.0983939403       17.9218008279
  C        16.0205841482       -7.8824755416       18.9297115088
  O        16.5783702344       -6.8404328862       19.1802879064
 OS        16.0864483500       -9.0032648748       19.6633628462
  C        16.3839247665       -3.3167339079       15.4572990704
  H        15.9971645105       -2.6735203868       16.2073475753
  H        17.3082567543       -2.9627733415       15.0849894468
  H        15.6227369182       -3.5165653414       14.7345747440
  C        16.6371623627       -4.5561725701       16.2976177279
  H        15.7794326264       -4.8378740745       16.9116911530
  C        17.8606382136       -4.5219741421       17.2142550761
  H        17.6273352689       -4.1506425682       18.2120492210
  H        18.6114079176       -3.9087664530       16.6691122049
 OS        18.2840691623       -5.9484068769       17.1362786039
  C        17.6336081206       -6.5790199913       16.1414237610
  O        18.0147731978       -7.7369324412       15.7926669110
 OS        16.9045804228       -5.6973134608       15.3844761149
  C        15.8293464541      -11.5283546113       11.9196828202
  H        16.1512545925      -12.4596379592       11.5547829689
  H        14.7854898743      -11.6185930942       12.1279718494
  H        15.8979675250      -10.8042105313       11.1394223825
  C        16.5046224852      -11.2924659171       13.1997688791
  H        16.4783025440      -12.1404311325       13.8300478366
  C        16.0695713839       -9.9865250992       13.8408217790
  H        16.4126573666      -10.0090310441       14.8679456870
  H        14.9936330061       -9.7724394613       13.8702554750
 OS        16.9235724232       -9.0597177019       13.1425718553
  C        18.0900602979       -9.6740749310       12.8042160790
  O        19.2269516526       -9.1709027697       12.5448073026
 OS        17.8662231359      -10.9918642150       12.9650549017
  C        16.9198072984       -6.0110104196        9.8432985564
  H        17.3505738225       -4.9468396274        9.7987354705
  H        16.8978050958       -6.5041857611        8.8664387524
  H        15.9387581390       -5.9789352205       10.2028522738
  C        17.8352072414       -6.7884437962       10.8241263819
  H        17.5882330574       -7.8112641354       10.9372026213
  C        17.9655201139       -6.0559122369       12.2257488430
  H        18.4505205970       -6.7620341944       12.9097693702
  H        17.0322246147       -5.7314435495       12.6392912576
 OS        18.8894168585       -5.0300586223       11.8207281768
  C        19.6793325466       -5.4930581362       10.8083668795
  O        20.7367310614       -4.9019167601       10.3942813115
 OS        19.0845424502       -6.6013378358       10.3309731359
  C         6.5346419597        3.1858284359       26.0576041850
  H         7.4724093803        3.0325605914       25.4649325453
  H         6.7291438853        3.9510776148       26.8343864385
  H         6.3233460783        2.3149864214       26.6896699190
  C         5.3958453284        3.4908956363       25.1449308677
  H         4.4228052391        3.8167396396       25.6166299268
  C         5.1319841628        2.4110695079       24.1003022528
  H         4.1226088165        2.5565784002       23.7153207877
  H         5.3183981385        1.4319984720       24.5424523281
 OS         6.1871162030        2.6481517611       23.1511607754
  C         6.3511025698        3.9766935193       23.1269335101
  O         7.0087493341        4.6351199317       22.2611897522
 OS         5.8006639670        4.5351660280       24.2142208893
  C         8.1247593397       10.3584092710       18.2592397242
  H         8.7979214876       11.2039450501       18.1521346669
  H         7.2566532241       10.5104146294       17.6209400653
  H         7.5936790001       10.5538740647       19.1874378599
  C         8.6336335581        8.9574761689       18.0943943794
  H         7.7839487497        8.3583199978       17.7536151172
  C         9.3740609392        8.4867715174       19.3163956779
  H         9.5552861514        7.4264798077       19.3051407834
  H         9.0028690348        8.7642350224       20.3157668391
 OS        10.6418638235        9.0934584936       19.0720515980
  C        10.8653228486        9.2287063770       17.7677453381
  O        11.9580940919        9.6118159689       17.3051124813
 OS         9.6898070248        8.9330266465       17.1496031511
  C        12.1810530775        4.2770467510       17.9680302545
  H        11.4584049091        3.4441549682       18.2387741999
  H        12.9349292713        3.8004397889       17.4005968577
  H        12.6545868055        4.6856800730       18.7791606904
  C        11.5169048073        5.4081648935       17.1848009351
  H        11.0020025368        6.0911138026       17.8712154699
  C        10.7414606402        4.8845013290       15.9198166061
  H         9.9934357762        5.5769258599       15.5756325550
  H        10.2172330375        3.9556210900       16.1837655885
 OS        11.8154600926        4.8020981633       14.9354142741
  C        12.8597806736        5.5354510859       15.3255172959
  O        13.8561308784        5.9172421272       14.6525366232
 OS        12.5412208549        6.0828646677       16.5315808045
  C         7.3775948698        3.6014892584       12.1265416634
  H         6.5162870312        3.6068245897       12.6992061871
  H         7.4889724063        4.5782571857       11.7781071727
  H         7.2337694580        2.9176205261       11.3171012221
  C         8.5203399025        3.0229181438       12.9276697153
  H         8.5036360005        3.4667748932       13.9126569266
  C         9.8854232101        3.0699607884       12.2501995476
  H        10.5488696825        3.9149613447       12.3946988972
  H         9.7342056832        2.9864224952       11.1768177730
 OS        10.5339418571        1.9039280831       12.8431380358
  C         9.5806750009        1.0297447088       13.1890308984
  O         9.7659084842       -0.1745197071       13.4761007689
 OS         8.3842073332        1.6134857361       13.1413844324
  C         9.2864226425        6.1820452227        8.7245944863
  H         8.8346818885        5.9817918292        7.7966577430
  H         8.5649878124        5.8272358114        9.4526571083
  H         9.4696163859        7.2844842926        8.8126480147
  C        10.6471406227        5.4924239339        8.9176819332
  H        11.0231125836        5.8429371471        9.8711658842
  C        11.3908377723        5.8174049416        7.5937282808
  H        12.4682576990        5.7010231749        7.7012656489
  H        11.0647573124        6.7881417682        7.2590696278
 OS        10.8830403664        4.7927743782        6.8111267191
  C        10.4049018104        3.7478382772        7.5399906191
  O        10.0905975891        2.6551103189        7.0712469922
 OS        10.3596936906        4.1259934240        8.8222975572
  C        12.4869377357        0.8083287520       20.7059788732
  H        13.3703628293        0.9991816912       20.0978284624
  H        12.4853367781       -0.2733824190       20.9738230928
  H        11.6231618954        1.1540288710       20.1465004416
  C        12.5615365555        1.5525190480       22.0172407353
  H        11.9058539784        1.1398503193       22.7330172512
  C        12.2620476975        3.0578474884       21.9170080980
  H        11.2237399347        3.3890299340       22.0633586407
  H        12.6585231557        3.3939404718       20.9322209871
 OS        13.1876582467        3.5917055800       22.8818496862
  C        14.2145315420        2.7191264313       23.1297162696
  O        15.3122991277        2.8415529470       23.8213713428
 OS        13.8945737463        1.5408267635       22.5649607314
  C         7.3431462381       -3.8093874961       17.3555660840
  H         7.2954180632       -4.3271347612       16.3966667498
  H         8.3418028220       -4.0051471611       17.8060643792
  H         6.5477464172       -4.2441222791       17.9523649920
  C         7.1383039955       -2.3283475876       16.9283330278
  H         6.1327517821       -2.2675016604       16.5489267169
  C         8.1637071016       -1.9025621121       15.9227030509
  H         7.8855552279       -1.0253549382       15.4014424528
  H         8.5772134558       -2.6198833597       15.1880878766
 OS         9.1691363793       -1.4188878468       16.7770027276
  C         8.6427522856       -1.0028938476       17.9514555834
  O         9.2509771112       -0.2393929621       18.7314902987
 OS         7.3736135168       -1.3539099600       17.9682851274
  C         8.4471356022       -4.9598318982       12.7786893183
  H         8.1864722905       -4.1665076569       13.4702379376
  H         8.7699166251       -4.5108141335       11.8502392716
  H         7.5581425446       -5.5968899501       12.5324880011
  C         9.6180731043       -5.8321903603       13.3047327999
  H         9.9901775072       -6.5469763491       12.5427351808
  C         9.4470473751       -6.4823795251       14.6110348038
  H        10.2933411826       -7.1790606306       14.7379423445
  H         8.4290616878       -6.8603326794       14.7192533722
 OS         9.6201665830       -5.3330142274       15.4248378202
  C        10.4643155090       -4.4642170429       14.8519013343
  O        10.9660089093       -3.3923509876       15.2848363934
 OS        10.7162528198       -5.0222836857       13.6244386189
  C        10.5307958600       -2.6727935055       10.7619426282
  H        10.0334984315       -3.1284057367        9.8967202583
  H         9.8024272498       -2.5404219347       11.5622375092
  H        10.7827333965       -1.6913395771       10.4392416588
  C        11.8474903987       -3.3122280402       11.2845527848
  H        11.6789807760       -4.3593205304       11.5348132162
  C        12.4208803491       -2.5394169521       12.4536843246
  H        12.8852681718       -3.2702984511       13.1472098417
  H        11.6183236150       -2.0506547895       13.0027017854
 OS        13.3804699551       -1.7268319672       11.7538181794
  C        13.5647493094       -2.0971580933       10.4645935531
  O        14.3191739956       -1.6012495768        9.6302764393
 OS        12.7318972771       -3.1274044189       10.1885484314
  C         8.5936772497      -10.5629156294       22.8168668849
  H         9.5582592694      -10.0928176595       22.6417813670
  H         8.7286818691      -11.5700268086       23.1578132956
  H         8.1017781906      -10.7160765236       21.8036435201
  C         7.6781282895       -9.7059023094       23.7270395249
  H         7.9387593593       -9.8628371973       24.8176170708
  C         6.1917898098       -9.8856514547       23.6012066057
  H         5.6350428446       -9.5136800685       24.4368705760
  H         5.9479126263      -10.9083889367       23.4681398670
 OS         5.9595027051       -9.0853443126       22.4126384346
  C         6.8315995121       -8.0701578547       22.3635415683
  O         6.7838457689       -7.1285055966       21.5236559805
 OS         7.8092003034       -8.3891330749       23.2821597486
  C        12.2418859414       -2.8750147787       18.6935117676
  H        13.1319549814       -2.2994651183       19.0033387715
  H        11.5835947001       -2.2485454100       18.1392838167
  H        11.7467454588       -3.1719726677       19.6838054621
  C        12.4946706335       -4.1735941175       17.8864908012
  H        12.8306964365       -3.9499227449       16.8518024079
  C        11.1715256703       -4.9685270720       17.9314873486
  H        11.1962800926       -5.7988118122       17.2505098032
  H        10.3055210372       -4.3900993487       17.8213008491
 OS        11.3214822456       -5.5614739366       19.2778943662
  C        12.6089423455       -5.7361740289       19.5125359896
  O        13.1391061446       -6.3286084123       20.4919420411
 OS        13.3103585442       -5.1095098871       18.5320792835
  C        12.6845295120       -8.3538540207       14.2067651038
  H        11.9596824875       -7.5915781069       13.8248383870
  H        12.9946607613       -9.0133793482       13.3546029139
  H        12.2389542970       -8.8737898344       15.0606444633
  C        13.9310163452       -7.6694272649       14.7868994336
  H        14.5387198775       -8.3743050405       15.4020226183
  C        13.5188109323       -6.3795680080       15.5149109619
  H        14.2638136810       -6.1162831415       16.2858017969
  H        12.4707744841       -6.3743195620       15.9013285887
 OS        13.5817121982       -5.3882578252       14.4832586442
  C        14.3176465085       -5.8484565578       13.4743014001
  O        14.5486805761       -5.1661260357       12.4399013531
 OS        14.7397945545       -7.0907391395       13.7203662498
  C        18.5637434353      -12.7518118762        7.2894075466
  H        19.4157009734      -13.0724489068        7.8324481401
  H        18.3794128602      -13.4681216185        6.5043472229
  H        18.8026253174      -11.8344037158        6.8510242883
  C        17.2738889128      -12.6970984623        8.0720711239
  H        17.0711825979      -13.6510024270        8.4896076918
  C        16.1742585746      -12.2447091151        7.1424078909
  H        15.2225806467      -12.5386680549        7.6689404986
  H        16.2159089798      -12.5180814501        6.1365137268
 OS        16.1725814071      -10.7899585977        7.2988420214
  C        16.7369768056      -10.4162888499        8.4854225799
  O        16.7058404673       -9.2993949272        9.0137286736
 OS        17.2601831417      -11.5849519129        9.0377362508
  C        10.1587812178       -6.3748900082        4.7571277449
  H        10.5707815099       -6.4552905649        5.7588101071
  H         9.6970518971       -7.2602344320        4.3624802003
  H        10.9844490664       -6.1122824237        4.0266912249
  C         9.1266329340       -5.2911717834        4.8241859476
  H         8.3537131547       -5.5568129716        5.5933825178
  C         8.5808278092       -4.9011965511        3.4312656830
  H         7.5472633100       -4.4668174715        3.5435627370
  H         8.7174554374       -5.6777125957        2.6414741290
 OS         9.5022200273       -3.8273364091        3.0610954916
  C        10.0001677904       -3.2535427947        4.1317451168
  O        10.6160114685       -2.1142289503        4.1774698622
 OS         9.7659207884       -4.0238972799        5.2090260209
  C         2.7811157859        6.6374398326       22.5207078160
  H         3.4742633456        6.5720210743       23.3216016603
  H         2.6809004983        7.6682768670       22.3259353125
  H         1.8102659132        6.2073121185       22.6699349832
  C         3.5607953351        5.9667538625       21.3050376498
  H         4.5088119563        6.4036349589       21.1783950681
  C         2.6850815328        5.6252503362       20.0902415896
  H         3.3869831948        5.3372351057       19.3351969119
  H         1.9575182896        6.4417087014       19.8213470274
 OS         1.9086908249        4.4896025329       20.6183087286
  C         2.7380194064        3.8021696671       21.3979150730
  O         2.6006065274        2.6805515271       21.8796513066
 OS         3.7513424497        4.6229216467       21.7156158265
  C         8.9115909968        3.4673640898       19.8271096077
  H         9.9905013468        3.6481225769       19.7086109426
  H         8.7436769977        3.0940252665       20.8436003881
  H         8.5838396502        2.6370294001       19.1837125756
  C         8.1009334536        4.7487599869       19.5840093656
  H         8.4506831878        5.6100792202       20.2409080710
  C         6.5682906689        4.5777106714       19.4790325458
  H         6.2668409233        5.5998549837       19.6490043333
  H         6.2459940647        3.7745807097       20.1047945558
 OS         6.4906696995        4.2204182013       18.0697775275
  C         7.5575298552        4.6259365797       17.3964815517
  O         7.7533169953        4.5477525457       16.1536215742
 OS         8.3815094297        5.1719802491       18.2868939076
  C         5.8881044914        1.0199120758       16.5054592529
  H         6.6959143670        1.2353338083       17.3234519172
  H         4.9116954033        0.9443705554       16.9717724470
  H         6.2049253362        0.0247709800       16.1358279265
  C         5.8782848172        2.0665300953       15.3477109998
  H         6.8791207813        2.4780296826       15.1604729243
  C         4.8407455699        3.1956812929       15.3408136065
  H         5.1741388993        3.8978555020       14.5873062903
  H         4.7669443542        3.7563967520       16.3174398458
 OS         3.6105370102        2.4893978838       15.0254647866
  C         4.0146750501        1.5633012054       14.1491488581
  O         3.2711139429        0.9180525890       13.3649562636
 OS         5.3656822834        1.3225507626       14.2479518754
  C         3.7096860080        3.2525076301       10.2401584093
  H         4.6828112051        3.7784832013       10.3487048325
  H         3.9087151558        2.2138424080       10.0268845216
  H         3.0177475034        3.6140146179        9.4380599692
  C         2.9071876113        3.3767150195       11.5377235070
  H         2.3905147708        2.4301106883       11.8221103505
  C         1.9323485736        4.5690071904       11.4995128328
  H         1.2466452297        4.3866798073       12.3808163326
  H         1.3629384832        4.7400191060       10.6193106705
 OS         2.7700386760        5.6617116794       11.7906680559
  C         3.7825672697        5.2129021487       12.5368689641
  O         4.4349713380        5.9227468445       13.3510880055
 OS         3.8413667368        3.8879403703       12.5188812127
  C         6.9197622014        7.6204674292       12.3833028003
  H         6.9138839306        6.8374467658       11.6398236232
  H         5.9527741658        7.8960697203       12.7974102586
  H         7.4036451842        8.4599416365       11.9640333194
  C         7.6435420347        7.0002283197       13.5487434079
  H         6.9390172802        6.3531179985       14.0268849661
  C         8.4059203245        8.0437078214       14.3717018483
  H         8.5486071724        7.6003602797       15.3337159901
  H         7.8497595403        8.9202524981       14.6786171729
 OS         9.6798949661        8.1419455395       13.7189784791
  C         9.9144740961        7.0902674605       12.9261281514
  O        10.9447078836        6.8456723543       12.3091697128
 OS         8.8201163225        6.3375171298       12.9733876974
  C         8.8676208154        0.2306350336       22.8380288818
  H         8.8769587202        1.2769758986       23.0127489874
  H         9.8092403735       -0.2755941953       23.1989341239
  H         8.7197347438       -0.0413802704       21.8293809475
  C         7.6746342192       -0.3350928128       23.6935469388
  H         6.7440688661        0.1957322322       23.4871352560
  C         8.0207537904       -0.4187470109       25.1751876376
  H         7.6298730151        0.3541917538       25.7024413268
  H         9.1100987282       -0.4436248337       25.3199551697
 OS         7.4892911637       -1.6754207241       25.4815457986
  C         7.3160364484       -2.4213221295       24.3337090792
  O         7.0110365957       -3.6679493280       24.2947864371
 OS         7.5163510593       -1.6431062372       23.2251758144
  C         4.2468939080       -2.4039243173       20.6452770767
  H         5.0759176946       -3.0329186394       20.6544944844
  H         3.9716058423       -2.1992802062       21.6946422712
  H         3.4001164534       -2.8207137799       20.1348983868
  C         4.7073754614       -1.1272928148       19.9117384344
  H         5.0737470656       -1.4178480012       18.9387992760
  C         5.7722635372       -0.2897120911       20.5816508501
  H         6.7589437419       -0.5653576414       20.2751414818
  H         5.5648492617       -0.2330080969       21.6851811519
 OS         5.5353040580        1.0268188125       20.0168499596
  C         4.1872291464        1.0202615903       19.7096230542
  O         3.5957971446        2.0764252014       19.2609871694
 OS         3.6629151494       -0.2058907266       19.8377694770
  C         2.8744061629       -6.5855714861       14.6275785652
  H         2.0887490712       -5.8587450378       14.3360427086
  H         2.4835158316       -7.6209198958       14.7015888489
  H         3.2009248257       -6.2243626602       15.6322175212
  C         4.0690116369       -6.5228442780       13.7142329523
  H         3.8221083513       -7.0662160044       12.8270216284
  C         5.4127032263       -6.9307683521       14.3151393531
  H         6.1139683756       -7.0272932474       13.4874342549
  H         5.4416065616       -7.7970128410       14.9756797358
 OS         5.7887822736       -5.7064986595       14.9804311310
  C         5.2375741197       -4.6470688362       14.3238968431
  O         5.4303656741       -3.4261257734       14.5263244731
 OS         4.3251936809       -5.1094591993       13.4488497132
  C         5.9850101760       -6.4398352836       10.3085105914
  H         6.5600879426       -7.3149820304       10.5507932547
  H         6.1340191589       -5.7798334642       11.2109331000
  H         4.9496705066       -6.7561741425       10.3387400424
  C         6.3747019612       -5.6201955939        9.0980927440
  H         5.8115213016       -4.7296713296        8.9196091355
  C         6.5129162907       -6.4644571645        7.8626561205
  H         6.0510796893       -5.8870991034        7.0692858494
  H         6.0909675972       -7.4100940776        7.8458583482
 OS         7.9369963124       -6.5427111979        7.7330242088
  C         8.5962849487       -5.7233482206        8.5572520289
  O         9.8353151583       -5.4512518355        8.3889052652
 OS         7.7220068299       -5.1041959736        9.3433338220
  C         5.5330877712       -2.7235226217       11.0275199520
  H         4.4471873546       -2.7847467489       10.9726724150
  H         5.9668901610       -2.6781016986       10.0536078208
  H         5.9751254309       -3.6104507461       11.4626451071
  C         5.9918070218       -1.4964269490       11.8625703304
  H         5.7929175441       -1.6451308445       12.8854782052
  C         5.3911640573       -0.1389144010       11.3171573968
  H         5.4907342379        0.6493210305       12.0015983019
  H         4.3648099151       -0.3066519001       11.0464106043
 OS         6.3360147708        0.2344335918       10.3391690426
  C         7.5277330213       -0.2892764518       10.6953324263
  O         8.6495778105       -0.1045564083       10.1182945483
 OS         7.3256600135       -1.1830465899       11.6766522151
  C         3.5729214548       -1.9804627216       25.9331552489
  H         3.5899323223       -2.5499752892       26.8505697916
  H         4.6025394571       -1.7790547699       25.7415150007
  H         2.9902705039       -1.1029347347       26.0728836102
  C         3.0537198719       -3.0158509582       24.9453451155
  H         3.0594843047       -2.6290571403       23.9426001305
  C         1.6226606706       -3.4081999478       25.3210134437
  H         0.8036655157       -2.9028215569       24.7708492736
  H         1.4683625434       -3.1967729730       26.3945149801
 OS         1.5864551096       -4.8320074011       24.9996790710
  C         2.8474279105       -5.3464619309       24.8223946414
  O         3.1694283476       -6.5399978838       24.6244811904
 OS         3.6386397232       -4.3191743063       25.0744218254
  C         3.6939331087       -6.2845632176       19.9949116352
  H         4.6935094098       -5.7837202781       20.0632855380
  H         2.8888426250       -5.5674163695       20.2314664545
  H         3.6387258742       -7.1089305522       20.7953348574
  C         3.6790650099       -6.9496700012       18.6400422320
  H         3.6813179648       -6.2378394925       17.8391175073
  C         2.5112690115       -7.9625504609       18.6296024524
  H         2.1783277049       -8.1438974996       17.6348493151
  H         1.6444652405       -7.5405451206       19.1039992905
 OS         3.0907935000       -9.1377905772       19.2503890325
  C         4.4697211039       -9.0877555895       19.1064106808
  O         5.2954483143      -10.0861372275       19.2553523526
 OS         4.7665261397       -7.8692370396       18.6066415067
  C         1.5287132407      -12.7300702760       16.1363072386
  H         1.6541417148      -13.7163328619       16.6224630051
  H         0.5420663609      -12.4091145888       16.4317291170
  H         1.5738002566      -12.8724266096       15.0547819526
  C         2.5287888085      -11.5918448353       16.5145947180
  H         2.3537314034      -11.3424103062       17.5547882851
  C         2.3772495703      -10.2287282908       15.8760204054
  H         1.6541582937       -9.6211738599       16.3398176233
  H         2.2282234346      -10.3421113116       14.8274063289
 OS         3.6815182224       -9.6655020521       16.1596680638
  C         4.6072435354      -10.6316699571       16.2183409599
  O         5.9108206904      -10.5653714396       16.2202597324
 OS         3.8666214976      -11.7824293131       16.2752564845
  C        13.5434633245       -9.3455978846       10.2460713678
  H        13.2154720855       -9.5050957454       11.2825501225
  H        13.4816640808      -10.2186633230        9.6458943967
  H        14.6213887746       -9.0244122022       10.3190954894
  C        12.7633715421       -8.2932548497        9.4591375202
  H        13.2079650594       -8.2345677386        8.4950667287
  C        12.6552087697       -6.9015413709       10.0752665520
  H        12.2891634856       -6.1246470462        9.3895044507
  H        13.5560572942       -6.7348682942       10.6505369879
 OS        11.5692256838       -7.1241950229       10.9697960955
  C        10.6960695694       -7.9992774936       10.4220902889
  O         9.5730735113       -8.2544180455       10.8743958967
 OS        11.3665456947       -8.6386942866        9.3917416075
  C         2.3862187946       -9.2516533233        8.1564319785
  H         1.6110748153       -8.6150383452        8.4796354368
  H         3.3206235915       -8.6809717023        7.8237522466
  H         2.0462866171       -9.8564419972        7.3342125664
  C         2.8068066442      -10.1102805954        9.4468702694
  H         1.9150846371      -10.4796862288        9.9417655662
  C         3.6881214200       -9.3837224723       10.4199083493
  H         3.6343098785       -9.8447485954       11.4705009924
  H         3.4204182275       -8.3404408394       10.5475077549
 OS         4.9556578805       -9.5949424962        9.9002234736
  C         5.0480120859      -10.7531038827        9.2175096505
  O         6.0719695634      -11.3190781132        8.8832343368
 OS         3.7472941735      -11.1531964715        9.0362779141
