&MULTIPLE_FORCE_EVALS
   FORCE_EVAL_ORDER 2 3 
   MULTIPLE_SUBSYS T
&END
&FORCE_EVAL
  METHOD MIXED
  &MIXED
    GROUP_PARTITION 1 1
    MIXING_TYPE GENMIX
    &GENERIC
      # X: Energy force_eval 2
      # Y: Energy force_eval 3
      MIXING_FUNCTION k*X+(1.0-k)*Y
      VARIABLES X Y
      PARAMETERS k
      VALUES 0.5
    &END
    &MAPPING
      &FORCE_EVAL_MIXED
        &FRAGMENT 1
          1 6
        &END
        &FRAGMENT 2
          7 16
        &END
        &FRAGMENT 3
          17 22
        &END
        &FRAGMENT 4
          23 33
        &END
        &FRAGMENT 5
          34 1851
        &END
      &END
      &FORCE_EVAL 1
        &FRAGMENT 1
          1 6
          MAP 1
        &END
        &FRAGMENT 2
          7 16
          MAP 2
        &END
        &FRAGMENT 3
          17 22
          MAP 3
        &END
        &FRAGMENT 4
          23 1840
          MAP 5
        &END
      &END
      &FORCE_EVAL 2
        &FRAGMENT 1
          1 6
          MAP 1
        &END
        &FRAGMENT 2
          7 17
          MAP 4
        &END
        &FRAGMENT 3
          18 23
          MAP 3
        &END
        &FRAGMENT 4
          24 1841
          MAP 5
        &END
      &END
    &END
  &END
  &SUBSYS
    &TOPOLOGY
      CONNECTIVITY OFF
      COORDINATE PDB
      COORD_FILE_NAME full.pdb
    &END TOPOLOGY
    &CELL
      ABC  30.9751780  30.8599250  30.7278700
    &END CELL
  &END SUBSYS
&END FORCE_EVAL
&FORCE_EVAL
  METHOD FIST
  &MM
    &FORCEFIELD
      PARM_FILE_NAME ala.pot
      parmtype CHM
      &SPLINE
        EMAX_SPLINE 100000000.0
      &END
    &END FORCEFIELD
    &POISSON
      &EWALD
        EWALD_TYPE spme
        ALPHA .5
        GMAX 36
        O_SPLINE 6
      &END EWALD
    &END POISSON
  &END MM
  &SUBSYS
    &TOPOLOGY
      CONNECTIVITY PSF
      CONN_FILE_NAME ala.psf
      COORDINATE PDB
      COORD_FILE_NAME ala.pdb
    &END TOPOLOGY
    &CELL
      ABC 30.9751780  30.8599250  30.7278700
    &END CELL
  &END SUBSYS
&END FORCE_EVAL
&FORCE_EVAL
  METHOD FIST
  &MM
    &FORCEFIELD
      PARM_FILE_NAME ser.pot
      parmtype CHM
      &SPLINE
        EMAX_SPLINE 100000000.0
      &END
    &END FORCEFIELD
    &POISSON
      &EWALD
        EWALD_TYPE spme
        ALPHA .5
        GMAX 36
        O_SPLINE 6
      &END EWALD
    &END POISSON
  &END MM
  &SUBSYS
    &TOPOLOGY
      CONNECTIVITY PSF
      CONN_FILE_NAME ser.psf
      COORDINATE PDB
      COORD_FILE_NAME ser.pdb
    &END TOPOLOGY
    &CELL
      ABC  30.9751780  30.8599250  30.7278700
    &END CELL
  &END SUBSYS
&END FORCE_EVAL
&GLOBAL
  PROJECT Solv_alch_chng_dist
  RUN_TYPE MD
  PRINT_LEVEL LOW
&END GLOBAL
&MOTION
  &MD
    ENSEMBLE NVE
    STEPS 20
    TIMESTEP 0.5
    TEMPERATURE 200.0
    &PRINT
     &ENERGY
      &EACH 
        MD 1
      &END
     &END
    &END
  &END MD
  &PRINT
   &TRAJECTORY
    &EACH 
      MD 100
    &END
   &END
   &VELOCITIES OFF
   &END
   &FORCES OFF
   &END
   &RESTART_HISTORY OFF
   &END
   &RESTART
    &EACH 
      MD 10
    &END
   &END
  &END
  &FREE_ENERGY
    METHOD AC
    &ALCHEMICAL_CHANGE
      PARAMETER k
    &END
  &END
&END MOTION
