      12
 i =      180, time =      180.000, E =      -398.5853239695
 Au         0.6391350264       -2.5318351087        1.7976706720
 Au        -0.3499715880        0.2124013789        1.6362903104
 Au        -1.7997296846       -1.8223615262        3.0391789420
 Au        -2.8350575517        0.8588228696        2.8197540898
 Au         2.8176350535       -3.5728303337        3.1847124992
 Au        -0.4388507522       -4.1332611517        3.8640809271
 Au        -0.5494270573        0.3694485660        4.5169033875
 Au         1.6920008195       -3.6445474659        5.7396500204
 Au        -3.1525505102       -0.8218920581        5.1531655022
 Au        -0.7065093745       -1.9734858101        5.8900342654
 Au         1.5494317215       -1.3049394972        4.3150317693
 Au        -0.7236474454       -4.5597522732        6.5452986506
